[General]
network = LLDPMixedNetwork

# record message exchange (sequence charts)
record-eventlog = true

sim-time-limit = 400s
**.R*.hasStatus = true

**.R*.networkLayer.enableLLDP = true
**.S*.hasLLDP = true

**.R*.networkLayer.lldp.msgTxInterval = 60
**.R*.networkLayer.lldp.msgTxHold = 3
**.S*.lldp.msgTxInterval = 60
**.S*.lldp.msgTxHold = 3

**.R1.deviceId = "R1"
**.R2.deviceId = "R2"
**.R3.deviceId = "R3"
**.S1.deviceId = "S1"

# Hosts IDs
**.scenarioManager.script = xmldoc("scenario.xml")