[General]
network = tworouters
#total-stack = 7MiB
tkenv-plugin-path = ../../../../etc/plugins
sim-time-limit = 5minutes
debug-on-errors = true

# record message exchange (sequence charts)
record-eventlog = true

**.scenarioManager.script = xmldoc("scenario.xml")

**.*.networkLayer.enableANSAConfig = true
**.R1.configData = xmldoc("config.xml", "Devices/Router[@id='2001:db8:a::1']/")
**.R2.configData = xmldoc("config.xml", "Devices/Router[@id='2001:db8:b::1']/")
**.LAN1.configData = xmldoc("config.xml", "Devices/Host[@id='2001:db8:a::2']/")
**.LAN2.configData = xmldoc("config.xml", "Devices/Host[@id='2001:db8:b::2']/")


[Config BABEL-IPv6-only]
**.R1.configData = xmldoc("config-ipv6.xml", "Devices/Router[@id='2001:db8:a::1']/")
**.R2.configData = xmldoc("config-ipv6.xml", "Devices/Router[@id='2001:db8:b::1']/")
**.LAN1.configData = xmldoc("config-ipv6.xml", "Devices/Host[@id='2001:db8:a::2']/")
**.LAN2.configData = xmldoc("config-ipv6.xml", "Devices/Host[@id='2001:db8:b::2']/")

[Config BABEL-IPv4-only]
**.R1.configData = xmldoc("config-ipv4.xml", "Devices/Router[@id='2001:db8:a::1']/")
**.R2.configData = xmldoc("config-ipv4.xml", "Devices/Router[@id='2001:db8:b::1']/")
**.LAN1.configData = xmldoc("config-ipv4.xml", "Devices/Host[@id='2001:db8:a::2']/")
**.LAN2.configData = xmldoc("config-ipv4.xml", "Devices/Host[@id='2001:db8:b::2']/")

[Config BABEL-IPv4andIPv6_over_IPv4]
**.R1.configData = xmldoc("config-ipvx.xml", "Devices/Router[@id='2001:db8:a::1']/")
**.R2.configData = xmldoc("config-ipvx.xml", "Devices/Router[@id='2001:db8:b::1']/")
**.LAN1.configData = xmldoc("config-ipvx.xml", "Devices/Host[@id='2001:db8:a::2']/")
**.LAN2.configData = xmldoc("config-ipvx.xml", "Devices/Host[@id='2001:db8:b::2']/")

[Config BABEL-IPvX_passive]
**.R1.configData = xmldoc("config-passive.xml", "Devices/Router[@id='2001:db8:a::1']/")
**.R2.configData = xmldoc("config-passive.xml", "Devices/Router[@id='2001:db8:b::1']/")
**.LAN1.configData = xmldoc("config-passive.xml", "Devices/Host[@id='2001:db8:a::2']/")
**.LAN2.configData = xmldoc("config-passive.xml", "Devices/Host[@id='2001:db8:b::2']/")

[Config BABEL-IPvX_disable-sh]
**.R1.configData = xmldoc("config-dis-sh.xml", "Devices/Router[@id='2001:db8:a::1']/")
**.R2.configData = xmldoc("config-dis-sh.xml", "Devices/Router[@id='2001:db8:b::1']/")
**.LAN1.configData = xmldoc("config-dis-sh.xml", "Devices/Host[@id='2001:db8:a::2']/")
**.LAN2.configData = xmldoc("config-dis-sh.xml", "Devices/Host[@id='2001:db8:b::2']/")

[Config BABEL-IPvX_use-ETX]
**.R1.configData = xmldoc("config-etx.xml", "Devices/Router[@id='2001:db8:a::1']/")
**.R2.configData = xmldoc("config-etx.xml", "Devices/Router[@id='2001:db8:b::1']/")
**.LAN1.configData = xmldoc("config-etx.xml", "Devices/Host[@id='2001:db8:a::2']/")
**.LAN2.configData = xmldoc("config-etx.xml", "Devices/Host[@id='2001:db8:b::2']/")

[Config BABEL-IPvX_Hello-timer-1s]
**.R1.configData = xmldoc("config-ht-1s.xml", "Devices/Router[@id='2001:db8:a::1']/")
**.R2.configData = xmldoc("config-ht-1s.xml", "Devices/Router[@id='2001:db8:b::1']/")
**.LAN1.configData = xmldoc("config-ht-1s.xml", "Devices/Host[@id='2001:db8:a::2']/")
**.LAN2.configData = xmldoc("config-ht-1s.xml", "Devices/Host[@id='2001:db8:b::2']/")

[Config BABEL-IPvX_rxcost_1234]
**.R1.configData = xmldoc("config-rxcost-1234.xml", "Devices/Router[@id='2001:db8:a::1']/")
**.R2.configData = xmldoc("config-rxcost-1234.xml", "Devices/Router[@id='2001:db8:b::1']/")
**.LAN1.configData = xmldoc("config-rxcost-1234.xml", "Devices/Host[@id='2001:db8:a::2']/")
**.LAN2.configData = xmldoc("config-rxcost-1234.xml", "Devices/Host[@id='2001:db8:b::2']/")

[Config BABEL-IPvX_iface_R1eth0_down_in_50s_up_in_100s]
**.scenarioManager.script = xmldoc("scenario-link-down.xml")

[Config Deterministic]
num-rngs = 2
seed-1-mt = 1000 
seed-0-mt = 1000
