[General]
network = VerTest5
#total-stack = 7MiB
tkenv-plugin-path = ../../../../etc/plugins
sim-time-limit = 5minutes
debug-on-errors = true
# Making simulation deterministic (at least Babel functionality)
num-rngs = 2
**.babel.*.rng-0 = 1
fingerprint = "332c-2cae"
# record message exchange (sequence charts)
record-eventlog = true

**.scenarioManager.script = xmldoc("scenario.xml")

#ANSA Config
**.*.networkLayer.enableANSAConfig = true
**.R2.configData = xmldoc("config.xml", "Devices/Router[@id='2001:db8:b::1']/")
**.R3.configData = xmldoc("config.xml", "Devices/Router[@id='2001:db8:c::1']/")
**.R4.configData = xmldoc("config.xml", "Devices/Router[@id='2001:db8:d::1']/")
**.LAN2.configData = xmldoc("config.xml", "Devices/Host[@id='2001:db8:b::2']/")
**.LAN3.configData = xmldoc("config.xml", "Devices/Host[@id='2001:db8:c::2']/")
**.LAN4.configData = xmldoc("config.xml", "Devices/Host[@id='2001:db8:d::2']/")
