[General]
# Shows that every host 1-4 gets different gateway router.
# Host 5 gets the same gateway router like host 1. 
#
network = fiveRouters
sim-time-limit = 70s
fingerprint = "d3f4-dd27"

#GLBP setup
**.R1.glbp.configData = xmldoc("config.xml", "Devices/Router[@id='R1']/Interfaces")
**.R2.glbp.configData = xmldoc("config.xml", "Devices/Router[@id='R2']/Interfaces")
**.R3.glbp.configData = xmldoc("config.xml", "Devices/Router[@id='R3']/Interfaces")
**.R4.glbp.configData = xmldoc("config.xml", "Devices/Router[@id='R4']/Interfaces")
**.R5.glbp.configData = xmldoc("config.xml", "Devices/Router[@id='R5']/Interfaces")

#scenario
**.scenarioManager.script = xmldoc("scenario-link-down.xml")

**.enableIPv6 = false
**.enableCLNS = false

#[Config Pingv4]
**.H1.hasUdp = true
**.H1.numPingApps = 1

**.H1.pingApp[0].destAddr = "192.168.1.254"
**.H1.pingApp[0].srcAddr = "192.168.1.10"
**.H1.pingApp[0].startTime = 35s
**.H1.pingApp[0].stopTime = 45s

**.H2.hasUdp = true
**.H2.numPingApps = 1
**.H2.pingApp[0].destAddr = "192.168.1.254"
**.H2.pingApp[0].srcAddr = "192.168.1.11"
**.H2.pingApp[0].startTime = 50s
**.H2.pingApp[0].stopTime = 55s

**.H3.hasUdp = true
**.H3.numPingApps = 1
**.H3.pingApp[0].destAddr = "192.168.1.254"
**.H3.pingApp[0].srcAddr = "192.168.1.12"
**.H3.pingApp[0].startTime = 56s
**.H3.pingApp[0].stopTime = 65s

**.H4.hasUdp = true
**.H4.numPingApps = 1
**.H4.pingApp[0].destAddr = "192.168.1.254"
**.H4.pingApp[0].srcAddr = "192.168.1.13"
**.H4.pingApp[0].startTime = 57s
**.H4.pingApp[0].stopTime = 68s

**.H5.hasUdp = true
**.H5.numPingApps = 1
**.H5.pingApp[0].destAddr = "192.168.1.254"
**.H5.pingApp[0].srcAddr = "192.168.1.14"
**.H5.pingApp[0].startTime = 57s
**.H5.pingApp[0].stopTime = 58s
