[General]
total-stack = 7MiB
tkenv-plugin-path = ../../../etc/plugins
sim-time-limit = 1day
debug-on-errors = false
record-eventlog = true
network = Network

# Routers IDs
**.ISP.deviceId  = "33.33.33.33"
**.GW1.deviceId  = "192.168.10.1"
**.GW2.deviceId  = "192.168.10.2"
**.Host.deviceId = "192.168.10.10"

# SCENARIO
**.Manager.script = xmldoc("scenario.xml")

# Ping GW1
**.Host.numPingApps = 2
**.Host.pingApp[0].destAddr = "192.168.10.254"
**.Host.pingApp[0].srcAddr = "192.168.10.10"
**.Host.pingApp[0].startTime = 0s
**.Host.pingApp[0].stopTime = 0s
**.Host.pingApp[0].count = 0

**.Host.pingApp[1].destAddr = "33.33.33.33"
**.Host.pingApp[1].srcAddr = "192.168.10.10"
**.Host.pingApp[1].startTime = 10s
**.Host.pingApp[1].stopTime = 150s
**.Host.pingApp[1].count = 40




