[General]
total-stack = 7MiB
tkenv-plugin-path = ../../../etc/plugins
sim-time-limit = 1day
debug-on-errors = false
record-eventlog = true
network = Network

# Routers IDs
**.GW1.deviceId = "192.168.1.1"
**.GW2.deviceId = "192.168.1.2"
**.Host.deviceId = "192.168.1.10"

# SCENARIO
**.Manager.script = xmldoc("scenario.xml")

[Config Ping_VirtualGW]

**.Host.numPingApps = 1
**.Host.pingApp[0].destAddr = "192.168.1.254"
**.Host.pingApp[0].srcAddr = "192.168.1.10"
**.Host.pingApp[0].startTime = 10s
**.Host.pingApp[0].stopTime = 200s


[Config Ping_GW1]

**.Host.numPingApps = 1
**.Host.pingApp[0].destAddr = "192.168.1.1"
**.Host.pingApp[0].srcAddr = "192.168.1.10"
**.Host.pingApp[0].startTime = 5s
**.Host.pingApp[0].stopTime = 200s
**.Host.pingApp[0].count = 40


[Config Ping_GW2]

**.Host.numPingApps = 1
**.Host.pingApp[0].destAddr = "192.168.1.2"
**.Host.pingApp[0].srcAddr = "192.168.1.10"
**.Host.pingApp[0].startTime = 10s
**.Host.pingApp[0].stopTime = 200s




