[General]
network = testVgChoose
sim-time-limit = 35s

#GLBP setup
**.R1.glbp.configData = xmldoc("config.xml", "Devices/Router[@id='R1']/Interfaces")
**.R2.glbp.configData = xmldoc("config.xml", "Devices/Router[@id='R2']/Interfaces")
**.R3.glbp.configData = xmldoc("config.xml", "Devices/Router[@id='R3']/Interfaces")

**.enableIPv6 = false
**.enableCLNS = false