[General]
total-stack = 7MiB
tkenv-plugin-path = ../../../etc/plugins
sim-time-limit = 1day
debug-on-errors = false
network = Network

# Routers IDs
**.ISP.deviceId  = "33.33.33.33"
**.GW1.deviceId  = "192.168.10.1"
**.GW2.deviceId  = "192.168.10.2"
**.Host1.deviceId = "192.168.10.10"
**.Host2.deviceId = "192.168.10.20"

# SCENARIO
**.Manager.script = xmldoc("scenario.xml")

[Config Ping_VirtualGW]

**.Host1.numPingApps = 1
**.Host1.pingApp[0].destAddr = "33.33.33.33"
**.Host1.pingApp[0].srcAddr = "192.168.10.10"
**.Host1.pingApp[0].startTime = 10s
**.Host1.pingApp[0].stopTime = 150s
**.Host1.pingApp[0].count = 40

**.Host2.numPingApps = 1
**.Host2.pingApp[0].destAddr = "33.33.33.33"
**.Host2.pingApp[0].srcAddr = "192.168.10.20"
**.Host2.pingApp[0].startTime = 15s
**.Host2.pingApp[0].stopTime = 150s
**.Host2.pingApp[0].count = 40


